/*--------------------------------*- C++ -*----------------------------------*\
  =========                 |
  \\      /  F ield         | OpenFOAM: The Open Source CFD Toolbox
   \\    /   O peration     | Website:  https://openfoam.org
    \\  /    A nd           | Version:  7
     \\/     M anipulation  |
\*---------------------------------------------------------------------------*/
FoamFile
{
    version     2.0;
    format      ascii;
    class       volScalarField;
    object      mut;
}
// * * * * * * * * * * * * * * * * * * * * * * * * * * * * * * * * * * * * * //

dimensions      [0 2 -1 0 0 0 0];

internalField   uniform 1.4038e-07;

boundaryField
{
    axis
    {
        type            empty;
	}
    inlet
    {
        type            calculated;
        value           $internalField;
    }
    wedge1
    {
        type            wedge;
    }
    wedge2
    {
        type            wedge;
    }
    wall1
    {
        type            nutUSpaldingWallFunction;
        value           $internalField;
    }
    inflow1
    {
        type            calculated;
        value           $internalField;
    }
    wall2
    {
        type            nutUSpaldingWallFunction;
        value           $internalField;
    }
    inflow2
    {
        type            calculated;
        value           $internalField;
    }
    outlet
    {
        type            calculated;
        value           $internalField;
    }
    wall3
    {
        type            nutUSpaldingWallFunction;
        value           $internalField;
    }

    #includeEtc "caseDicts/setConstraintTypes"
}

// ************************************************************************* //
